* Chua Circuit
.model nbjt NPN IS=1e-9 BF=100 BR=1  N=38.77661
VCC1 13 0 12
VCC2 14 0 12
V1 1 2 10
V2 11 3 2
R1 2 3 1e4
R2 4 13 4e3
R3 5 14 4e3
R4 1 0 5e3
R5 4 6 3e4
R6 8 0 500
R7 9 0 500
R8 5 7 3e4
R9 6 0 10.1e3
R10 7 0 10.1e3
R11 13 10 4e3
R12 14 12 4e3
R13 10 3 30e3
R14 12 11 30e3
Q1 4 1 8 nbjt
Q2 10 6 8 nbjt
Q3 5 1 9 nbjt
Q4 12 7 9 nbjt
.nodeset v(1)=1.7754 v(2)=-8.2246 v(3)=-1.1044 v(4)=1.4643 v(5)=1.4643 v(6)=0.3688 v(7)=0.3688 v(8)=1.3879 v(9)=1.3879 v(10)=10.4580 v(11)=0.8956 v(12)=10.6940 v(13)=12.0000 v(14)=12.0000 v(15)=-3.019e-3 v(16)=-2.961e-3 v(17)=-0.712e-3 v(18)=0.3266e-3
.op